
---------- Begin Simulation Statistics ----------
simSeconds                                   0.017027                       # Number of seconds simulated (Second)
simTicks                                  17027094375                       # Number of ticks simulated (Tick)
finalTick                                 17027094375                       # Number of ticks from beginning of simulation (restored from checkpoints and never reset) (Tick)
simFreq                                  1000000000000                       # The number of ticks per simulated second ((Tick/Second))
hostSeconds                                      3.77                       # Real time elapsed on the host (Second)
hostTickRate                               4515808258                       # The number of ticks simulated per host second (ticks/s) ((Tick/Second))
hostMemory                                    8619960                       # Number of bytes of host memory used (Byte)
simInsts                                      6972046                       # Number of instructions simulated (Count)
simOps                                       11171467                       # Number of ops (including micro ops) simulated (Count)
hostInstRate                                  1849055                       # Simulator instruction rate (inst/s) ((Count/Second))
hostOpRate                                    2962782                       # Simulator op (including micro ops) rate (op/s) ((Count/Second))
system.clk_domain.clock                          1000                       # Clock period in ticks (Tick)
system.clk_domain.voltage_domain.voltage            1                       # Voltage in Volts (Volt)
system.cpu.numCycles                         27243351                       # Number of cpu cycles simulated (Cycle)
system.cpu.cpi                               3.907415                       # CPI: cycles per instruction (core level) ((Cycle/Count))
system.cpu.ipc                               0.255924                       # IPC: instructions per cycle (core level) ((Count/Cycle))
system.cpu.numWorkItemsStarted                      0                       # Number of work items this cpu started (Count)
system.cpu.numWorkItemsCompleted                    0                       # Number of work items this cpu completed (Count)
system.cpu.branchPred.lookups_0::NoBranch           74      0.01%      0.01% # Number of BP lookups (Count)
system.cpu.branchPred.lookups_0::Return        234688     26.77%     26.78% # Number of BP lookups (Count)
system.cpu.branchPred.lookups_0::CallDirect       234120     26.71%     53.49% # Number of BP lookups (Count)
system.cpu.branchPred.lookups_0::CallIndirect          573      0.07%     53.56% # Number of BP lookups (Count)
system.cpu.branchPred.lookups_0::DirectCond       380004     43.35%     96.91% # Number of BP lookups (Count)
system.cpu.branchPred.lookups_0::DirectUncond        18871      2.15%     99.06% # Number of BP lookups (Count)
system.cpu.branchPred.lookups_0::IndirectCond            0      0.00%     99.06% # Number of BP lookups (Count)
system.cpu.branchPred.lookups_0::IndirectUncond         8227      0.94%    100.00% # Number of BP lookups (Count)
system.cpu.branchPred.lookups_0::total         876557                       # Number of BP lookups (Count)
system.cpu.branchPred.squashes_0::NoBranch            0                       # Number of branches that got squashed (completely removed) as an earlier branch was mispredicted. (Count)
system.cpu.branchPred.squashes_0::Return            0                       # Number of branches that got squashed (completely removed) as an earlier branch was mispredicted. (Count)
system.cpu.branchPred.squashes_0::CallDirect            0                       # Number of branches that got squashed (completely removed) as an earlier branch was mispredicted. (Count)
system.cpu.branchPred.squashes_0::CallIndirect            0                       # Number of branches that got squashed (completely removed) as an earlier branch was mispredicted. (Count)
system.cpu.branchPred.squashes_0::DirectCond            0                       # Number of branches that got squashed (completely removed) as an earlier branch was mispredicted. (Count)
system.cpu.branchPred.squashes_0::DirectUncond            0                       # Number of branches that got squashed (completely removed) as an earlier branch was mispredicted. (Count)
system.cpu.branchPred.squashes_0::IndirectCond            0                       # Number of branches that got squashed (completely removed) as an earlier branch was mispredicted. (Count)
system.cpu.branchPred.squashes_0::IndirectUncond            0                       # Number of branches that got squashed (completely removed) as an earlier branch was mispredicted. (Count)
system.cpu.branchPred.squashes_0::total             0                       # Number of branches that got squashed (completely removed) as an earlier branch was mispredicted. (Count)
system.cpu.branchPred.corrected_0::NoBranch           74      0.42%      0.42% # Number of branches that got corrected but not yet commited. Branches get corrected by decode or after execute. Also a branch misprediction can be detected out-of-order. Therefore, a corrected branch might not end up beeing committed in case an even earlier branch was mispredicted (Count)
system.cpu.branchPred.corrected_0::Return            1      0.01%      0.43% # Number of branches that got corrected but not yet commited. Branches get corrected by decode or after execute. Also a branch misprediction can be detected out-of-order. Therefore, a corrected branch might not end up beeing committed in case an even earlier branch was mispredicted (Count)
system.cpu.branchPred.corrected_0::CallDirect          824      4.67%      5.10% # Number of branches that got corrected but not yet commited. Branches get corrected by decode or after execute. Also a branch misprediction can be detected out-of-order. Therefore, a corrected branch might not end up beeing committed in case an even earlier branch was mispredicted (Count)
system.cpu.branchPred.corrected_0::CallIndirect          257      1.46%      6.55% # Number of branches that got corrected but not yet commited. Branches get corrected by decode or after execute. Also a branch misprediction can be detected out-of-order. Therefore, a corrected branch might not end up beeing committed in case an even earlier branch was mispredicted (Count)
system.cpu.branchPred.corrected_0::DirectCond        15183     86.08%     92.63% # Number of branches that got corrected but not yet commited. Branches get corrected by decode or after execute. Also a branch misprediction can be detected out-of-order. Therefore, a corrected branch might not end up beeing committed in case an even earlier branch was mispredicted (Count)
system.cpu.branchPred.corrected_0::DirectUncond          484      2.74%     95.37% # Number of branches that got corrected but not yet commited. Branches get corrected by decode or after execute. Also a branch misprediction can be detected out-of-order. Therefore, a corrected branch might not end up beeing committed in case an even earlier branch was mispredicted (Count)
system.cpu.branchPred.corrected_0::IndirectCond            0      0.00%     95.37% # Number of branches that got corrected but not yet commited. Branches get corrected by decode or after execute. Also a branch misprediction can be detected out-of-order. Therefore, a corrected branch might not end up beeing committed in case an even earlier branch was mispredicted (Count)
system.cpu.branchPred.corrected_0::IndirectUncond          816      4.63%    100.00% # Number of branches that got corrected but not yet commited. Branches get corrected by decode or after execute. Also a branch misprediction can be detected out-of-order. Therefore, a corrected branch might not end up beeing committed in case an even earlier branch was mispredicted (Count)
system.cpu.branchPred.corrected_0::total        17639                       # Number of branches that got corrected but not yet commited. Branches get corrected by decode or after execute. Also a branch misprediction can be detected out-of-order. Therefore, a corrected branch might not end up beeing committed in case an even earlier branch was mispredicted (Count)
system.cpu.branchPred.earlyResteers_0::NoBranch            0                       # Number of branches that got redirected after decode. (Count)
system.cpu.branchPred.earlyResteers_0::Return            0                       # Number of branches that got redirected after decode. (Count)
system.cpu.branchPred.earlyResteers_0::CallDirect            0                       # Number of branches that got redirected after decode. (Count)
system.cpu.branchPred.earlyResteers_0::CallIndirect            0                       # Number of branches that got redirected after decode. (Count)
system.cpu.branchPred.earlyResteers_0::DirectCond            0                       # Number of branches that got redirected after decode. (Count)
system.cpu.branchPred.earlyResteers_0::DirectUncond            0                       # Number of branches that got redirected after decode. (Count)
system.cpu.branchPred.earlyResteers_0::IndirectCond            0                       # Number of branches that got redirected after decode. (Count)
system.cpu.branchPred.earlyResteers_0::IndirectUncond            0                       # Number of branches that got redirected after decode. (Count)
system.cpu.branchPred.earlyResteers_0::total            0                       # Number of branches that got redirected after decode. (Count)
system.cpu.branchPred.committed_0::NoBranch           74      0.01%      0.01% # Number of branches finally committed  (Count)
system.cpu.branchPred.committed_0::Return       234688     26.77%     26.78% # Number of branches finally committed  (Count)
system.cpu.branchPred.committed_0::CallDirect       234119     26.71%     53.49% # Number of branches finally committed  (Count)
system.cpu.branchPred.committed_0::CallIndirect          573      0.07%     53.56% # Number of branches finally committed  (Count)
system.cpu.branchPred.committed_0::DirectCond       380004     43.35%     96.91% # Number of branches finally committed  (Count)
system.cpu.branchPred.committed_0::DirectUncond        18870      2.15%     99.06% # Number of branches finally committed  (Count)
system.cpu.branchPred.committed_0::IndirectCond            0      0.00%     99.06% # Number of branches finally committed  (Count)
system.cpu.branchPred.committed_0::IndirectUncond         8227      0.94%    100.00% # Number of branches finally committed  (Count)
system.cpu.branchPred.committed_0::total       876555                       # Number of branches finally committed  (Count)
system.cpu.branchPred.mispredicted_0::NoBranch           74      0.42%      0.42% # Number of committed branches that were mispredicted. (Count)
system.cpu.branchPred.mispredicted_0::Return            1      0.01%      0.43% # Number of committed branches that were mispredicted. (Count)
system.cpu.branchPred.mispredicted_0::CallDirect          805      4.59%      5.02% # Number of committed branches that were mispredicted. (Count)
system.cpu.branchPred.mispredicted_0::CallIndirect          222      1.27%      6.29% # Number of committed branches that were mispredicted. (Count)
system.cpu.branchPred.mispredicted_0::DirectCond        15179     86.59%     92.88% # Number of committed branches that were mispredicted. (Count)
system.cpu.branchPred.mispredicted_0::DirectUncond          480      2.74%     95.61% # Number of committed branches that were mispredicted. (Count)
system.cpu.branchPred.mispredicted_0::IndirectCond            0      0.00%     95.61% # Number of committed branches that were mispredicted. (Count)
system.cpu.branchPred.mispredicted_0::IndirectUncond          769      4.39%    100.00% # Number of committed branches that were mispredicted. (Count)
system.cpu.branchPred.mispredicted_0::total        17530                       # Number of committed branches that were mispredicted. (Count)
system.cpu.branchPred.targetProvider_0::NoTarget       171369     19.55%     19.55% # The component providing the target for taken branches (Count)
system.cpu.branchPred.targetProvider_0::BTB       462632     52.78%     72.33% # The component providing the target for taken branches (Count)
system.cpu.branchPred.targetProvider_0::RAS       234688     26.77%     99.10% # The component providing the target for taken branches (Count)
system.cpu.branchPred.targetProvider_0::Indirect         7868      0.90%    100.00% # The component providing the target for taken branches (Count)
system.cpu.branchPred.targetProvider_0::total       876557                       # The component providing the target for taken branches (Count)
system.cpu.branchPred.targetWrong_0::NoBranch         9022     59.53%     59.53% # Number of branches where the target was incorrect or not available at prediction time. (Count)
system.cpu.branchPred.targetWrong_0::Return         6073     40.07%     99.60% # Number of branches where the target was incorrect or not available at prediction time. (Count)
system.cpu.branchPred.targetWrong_0::CallDirect            1      0.01%     99.61% # Number of branches where the target was incorrect or not available at prediction time. (Count)
system.cpu.branchPred.targetWrong_0::CallIndirect           59      0.39%    100.00% # Number of branches where the target was incorrect or not available at prediction time. (Count)
system.cpu.branchPred.targetWrong_0::DirectCond            0      0.00%    100.00% # Number of branches where the target was incorrect or not available at prediction time. (Count)
system.cpu.branchPred.targetWrong_0::DirectUncond            0      0.00%    100.00% # Number of branches where the target was incorrect or not available at prediction time. (Count)
system.cpu.branchPred.targetWrong_0::IndirectCond            0      0.00%    100.00% # Number of branches where the target was incorrect or not available at prediction time. (Count)
system.cpu.branchPred.targetWrong_0::IndirectUncond            0      0.00%    100.00% # Number of branches where the target was incorrect or not available at prediction time. (Count)
system.cpu.branchPred.targetWrong_0::total        15155                       # Number of branches where the target was incorrect or not available at prediction time. (Count)
system.cpu.branchPred.condPredicted            380078                       # Number of conditional branches predicted (Count)
system.cpu.branchPred.condPredictedTaken       210856                       # Number of conditional branches predicted as taken (Count)
system.cpu.branchPred.condIncorrect             17639                       # Number of conditional branches incorrect (Count)
system.cpu.branchPred.predTakenBTBMiss           1153                       # Number of branches predicted taken but missed in BTB (Count)
system.cpu.branchPred.NotTakenMispredicted        11068                       # Number branches predicted 'not taken' but turned out to be taken (Count)
system.cpu.branchPred.TakenMispredicted          6571                       # Number branches predicted taken but are actually not taken (Count)
system.cpu.branchPred.BTBLookups               876557                       # Number of BTB lookups (Count)
system.cpu.branchPred.BTBUpdates                 9920                       # Number of BTB updates (Count)
system.cpu.branchPred.BTBHits                  520119                       # Number of BTB hits (Count)
system.cpu.branchPred.BTBHitRatio            0.593366                       # BTB Hit Ratio (Ratio)
system.cpu.branchPred.BTBMispredicted            2112                       # Number BTB mispredictions. No target found or target wrong (Count)
system.cpu.branchPred.indirectLookups            8800                       # Number of indirect predictor lookups. (Count)
system.cpu.branchPred.indirectHits               7868                       # Number of indirect target hits. (Count)
system.cpu.branchPred.indirectMisses              932                       # Number of indirect misses. (Count)
system.cpu.branchPred.indirectMispredicted            0                       # Number of mispredicted indirect branches. (Count)
system.cpu.branchPred.btb.lookups::NoBranch           74      0.01%      0.01% # Number of BTB lookups (Count)
system.cpu.branchPred.btb.lookups::Return       234688     26.77%     26.78% # Number of BTB lookups (Count)
system.cpu.branchPred.btb.lookups::CallDirect       234120     26.71%     53.49% # Number of BTB lookups (Count)
system.cpu.branchPred.btb.lookups::CallIndirect          573      0.07%     53.56% # Number of BTB lookups (Count)
system.cpu.branchPred.btb.lookups::DirectCond       380004     43.35%     96.91% # Number of BTB lookups (Count)
system.cpu.branchPred.btb.lookups::DirectUncond        18871      2.15%     99.06% # Number of BTB lookups (Count)
system.cpu.branchPred.btb.lookups::IndirectCond            0      0.00%     99.06% # Number of BTB lookups (Count)
system.cpu.branchPred.btb.lookups::IndirectUncond         8227      0.94%    100.00% # Number of BTB lookups (Count)
system.cpu.branchPred.btb.lookups::total       876557                       # Number of BTB lookups (Count)
system.cpu.branchPred.btb.misses::NoBranch            0      0.00%      0.00% # Number of BTB misses (Count)
system.cpu.branchPred.btb.misses::Return       234688     65.84%     65.84% # Number of BTB misses (Count)
system.cpu.branchPred.btb.misses::CallDirect          710      0.20%     66.04% # Number of BTB misses (Count)
system.cpu.branchPred.btb.misses::CallIndirect          573      0.16%     66.20% # Number of BTB misses (Count)
system.cpu.branchPred.btb.misses::DirectCond       111861     31.38%     97.59% # Number of BTB misses (Count)
system.cpu.branchPred.btb.misses::DirectUncond          379      0.11%     97.69% # Number of BTB misses (Count)
system.cpu.branchPred.btb.misses::IndirectCond            0      0.00%     97.69% # Number of BTB misses (Count)
system.cpu.branchPred.btb.misses::IndirectUncond         8227      2.31%    100.00% # Number of BTB misses (Count)
system.cpu.branchPred.btb.misses::total        356438                       # Number of BTB misses (Count)
system.cpu.branchPred.btb.updates::NoBranch            0      0.00%      0.00% # Number of BTB updates (Count)
system.cpu.branchPred.btb.updates::Return            0      0.00%      0.00% # Number of BTB updates (Count)
system.cpu.branchPred.btb.updates::CallDirect          824      8.31%      8.31% # Number of BTB updates (Count)
system.cpu.branchPred.btb.updates::CallIndirect            0      0.00%      8.31% # Number of BTB updates (Count)
system.cpu.branchPred.btb.updates::DirectCond         8612     86.81%     95.12% # Number of BTB updates (Count)
system.cpu.branchPred.btb.updates::DirectUncond          484      4.88%    100.00% # Number of BTB updates (Count)
system.cpu.branchPred.btb.updates::IndirectCond            0      0.00%    100.00% # Number of BTB updates (Count)
system.cpu.branchPred.btb.updates::IndirectUncond            0      0.00%    100.00% # Number of BTB updates (Count)
system.cpu.branchPred.btb.updates::total         9920                       # Number of BTB updates (Count)
system.cpu.branchPred.btb.mispredict::NoBranch            0      0.00%      0.00% # Number of BTB mispredictions. No target found or target wrong. (Count)
system.cpu.branchPred.btb.mispredict::Return            0      0.00%      0.00% # Number of BTB mispredictions. No target found or target wrong. (Count)
system.cpu.branchPred.btb.mispredict::CallDirect          824      8.31%      8.31% # Number of BTB mispredictions. No target found or target wrong. (Count)
system.cpu.branchPred.btb.mispredict::CallIndirect            0      0.00%      8.31% # Number of BTB mispredictions. No target found or target wrong. (Count)
system.cpu.branchPred.btb.mispredict::DirectCond         8612     86.81%     95.12% # Number of BTB mispredictions. No target found or target wrong. (Count)
system.cpu.branchPred.btb.mispredict::DirectUncond          484      4.88%    100.00% # Number of BTB mispredictions. No target found or target wrong. (Count)
system.cpu.branchPred.btb.mispredict::IndirectCond            0      0.00%    100.00% # Number of BTB mispredictions. No target found or target wrong. (Count)
system.cpu.branchPred.btb.mispredict::IndirectUncond            0      0.00%    100.00% # Number of BTB mispredictions. No target found or target wrong. (Count)
system.cpu.branchPred.btb.mispredict::total         9920                       # Number of BTB mispredictions. No target found or target wrong. (Count)
system.cpu.branchPred.btb.power_state.pwrStateResidencyTicks::UNDEFINED  17027094375                       # Cumulative time (in ticks) in various power states (Tick)
system.cpu.branchPred.indirectBranchPred.lookups         8800                       # Number of lookups (Count)
system.cpu.branchPred.indirectBranchPred.hits         7868                       # Number of hits of a tag (Count)
system.cpu.branchPred.indirectBranchPred.misses          932                       # Number of misses (Count)
system.cpu.branchPred.indirectBranchPred.targetRecords         1073                       # Number of targets that where recorded/installed in the cache (Count)
system.cpu.branchPred.indirectBranchPred.indirectRecords         9873                       # Number of indirect branches/calls recorded in the indirect hist (Count)
system.cpu.branchPred.indirectBranchPred.speculativeOverflows            0                       # Number of times more than the allowed capacity for speculative branches/calls where in flight and destroy the path history (Count)
system.cpu.branchPred.ras.pushes               234693                       # Number of times a PC was pushed onto the RAS (Count)
system.cpu.branchPred.ras.pops                 234688                       # Number of times a PC was poped from the RAS (Count)
system.cpu.branchPred.ras.squashes                  0                       # Number of times the stack operation was squashed due to wrong speculation. (Count)
system.cpu.branchPred.ras.used                 234688                       # Number of times the RAS is the provider (Count)
system.cpu.branchPred.ras.correct              234687                       # Number of times the RAS is the provider and the prediction is correct (Count)
system.cpu.branchPred.ras.incorrect                 1                       # Number of times the RAS is the provider and the prediction is wrong (Count)
system.cpu.commitStats0.numInsts              6972218                       # Number of instructions committed (thread level) (Count)
system.cpu.commitStats0.numOps               11171807                       # Number of ops (including micro ops) committed (thread level) (Count)
system.cpu.commitStats0.numInstsNotNOP              0                       # Number of instructions committed excluding NOPs or prefetches (Count)
system.cpu.commitStats0.numOpsNotNOP                0                       # Number of Ops (including micro ops) Simulated (Count)
system.cpu.commitStats0.cpi                  3.907415                       # CPI: cycles per instruction (thread level) ((Cycle/Count))
system.cpu.commitStats0.ipc                  0.255924                       # IPC: instructions per cycle (thread level) ((Count/Cycle))
system.cpu.commitStats0.numMemRefs                  0                       # Number of memory references committed (Count)
system.cpu.commitStats0.numFpInsts             580842                       # Number of float instructions (Count)
system.cpu.commitStats0.numIntInsts          10664580                       # Number of integer instructions (Count)
system.cpu.commitStats0.numLoadInsts          2250585                       # Number of load instructions (Count)
system.cpu.commitStats0.numStoreInsts         1246222                       # Number of store instructions (Count)
system.cpu.commitStats0.numVecInsts                 0                       # Number of vector instructions (Count)
system.cpu.commitStats0.committedInstType::No_OpClass       240540      2.15%      2.15% # Class of committed instruction. (Count)
system.cpu.commitStats0.committedInstType::IntAlu      7146268     63.97%     66.12% # Class of committed instruction. (Count)
system.cpu.commitStats0.committedInstType::IntMult          173      0.00%     66.12% # Class of committed instruction. (Count)
system.cpu.commitStats0.committedInstType::IntDiv        36069      0.32%     66.44% # Class of committed instruction. (Count)
system.cpu.commitStats0.committedInstType::FloatAdd       121380      1.09%     67.53% # Class of committed instruction. (Count)
system.cpu.commitStats0.committedInstType::FloatCmp            0      0.00%     67.53% # Class of committed instruction. (Count)
system.cpu.commitStats0.committedInstType::FloatCvt         1232      0.01%     67.54% # Class of committed instruction. (Count)
system.cpu.commitStats0.committedInstType::FloatMult            0      0.00%     67.54% # Class of committed instruction. (Count)
system.cpu.commitStats0.committedInstType::FloatMultAcc            0      0.00%     67.54% # Class of committed instruction. (Count)
system.cpu.commitStats0.committedInstType::FloatDiv            0      0.00%     67.54% # Class of committed instruction. (Count)
system.cpu.commitStats0.committedInstType::FloatMisc            0      0.00%     67.54% # Class of committed instruction. (Count)
system.cpu.commitStats0.committedInstType::FloatSqrt            0      0.00%     67.54% # Class of committed instruction. (Count)
system.cpu.commitStats0.committedInstType::SimdAdd         5658      0.05%     67.59% # Class of committed instruction. (Count)
system.cpu.commitStats0.committedInstType::SimdAddAcc            0      0.00%     67.59% # Class of committed instruction. (Count)
system.cpu.commitStats0.committedInstType::SimdAlu        16858      0.15%     67.74% # Class of committed instruction. (Count)
system.cpu.commitStats0.committedInstType::SimdCmp            0      0.00%     67.74% # Class of committed instruction. (Count)
system.cpu.commitStats0.committedInstType::SimdCvt        11724      0.10%     67.85% # Class of committed instruction. (Count)
system.cpu.commitStats0.committedInstType::SimdMisc        21076      0.19%     68.04% # Class of committed instruction. (Count)
system.cpu.commitStats0.committedInstType::SimdMult            0      0.00%     68.04% # Class of committed instruction. (Count)
system.cpu.commitStats0.committedInstType::SimdMultAcc            0      0.00%     68.04% # Class of committed instruction. (Count)
system.cpu.commitStats0.committedInstType::SimdMatMultAcc            0      0.00%     68.04% # Class of committed instruction. (Count)
system.cpu.commitStats0.committedInstType::SimdShift          806      0.01%     68.04% # Class of committed instruction. (Count)
system.cpu.commitStats0.committedInstType::SimdShiftAcc            0      0.00%     68.04% # Class of committed instruction. (Count)
system.cpu.commitStats0.committedInstType::SimdDiv            0      0.00%     68.04% # Class of committed instruction. (Count)
system.cpu.commitStats0.committedInstType::SimdSqrt            0      0.00%     68.04% # Class of committed instruction. (Count)
system.cpu.commitStats0.committedInstType::SimdFloatAdd        32768      0.29%     68.34% # Class of committed instruction. (Count)
system.cpu.commitStats0.committedInstType::SimdFloatAlu            0      0.00%     68.34% # Class of committed instruction. (Count)
system.cpu.commitStats0.committedInstType::SimdFloatCmp            0      0.00%     68.34% # Class of committed instruction. (Count)
system.cpu.commitStats0.committedInstType::SimdFloatCvt         2560      0.02%     68.36% # Class of committed instruction. (Count)
system.cpu.commitStats0.committedInstType::SimdFloatDiv         2560      0.02%     68.38% # Class of committed instruction. (Count)
system.cpu.commitStats0.committedInstType::SimdFloatMisc            0      0.00%     68.38% # Class of committed instruction. (Count)
system.cpu.commitStats0.committedInstType::SimdFloatMult        35328      0.32%     68.70% # Class of committed instruction. (Count)
system.cpu.commitStats0.committedInstType::SimdFloatMultAcc            0      0.00%     68.70% # Class of committed instruction. (Count)
system.cpu.commitStats0.committedInstType::SimdFloatMatMultAcc            0      0.00%     68.70% # Class of committed instruction. (Count)
system.cpu.commitStats0.committedInstType::SimdFloatSqrt            0      0.00%     68.70% # Class of committed instruction. (Count)
system.cpu.commitStats0.committedInstType::SimdReduceAdd            0      0.00%     68.70% # Class of committed instruction. (Count)
system.cpu.commitStats0.committedInstType::SimdReduceAlu            0      0.00%     68.70% # Class of committed instruction. (Count)
system.cpu.commitStats0.committedInstType::SimdReduceCmp            0      0.00%     68.70% # Class of committed instruction. (Count)
system.cpu.commitStats0.committedInstType::SimdFloatReduceAdd            0      0.00%     68.70% # Class of committed instruction. (Count)
system.cpu.commitStats0.committedInstType::SimdFloatReduceCmp            0      0.00%     68.70% # Class of committed instruction. (Count)
system.cpu.commitStats0.committedInstType::SimdAes            0      0.00%     68.70% # Class of committed instruction. (Count)
system.cpu.commitStats0.committedInstType::SimdAesMix            0      0.00%     68.70% # Class of committed instruction. (Count)
system.cpu.commitStats0.committedInstType::SimdSha1Hash            0      0.00%     68.70% # Class of committed instruction. (Count)
system.cpu.commitStats0.committedInstType::SimdSha1Hash2            0      0.00%     68.70% # Class of committed instruction. (Count)
system.cpu.commitStats0.committedInstType::SimdSha256Hash            0      0.00%     68.70% # Class of committed instruction. (Count)
system.cpu.commitStats0.committedInstType::SimdSha256Hash2            0      0.00%     68.70% # Class of committed instruction. (Count)
system.cpu.commitStats0.committedInstType::SimdShaSigma2            0      0.00%     68.70% # Class of committed instruction. (Count)
system.cpu.commitStats0.committedInstType::SimdShaSigma3            0      0.00%     68.70% # Class of committed instruction. (Count)
system.cpu.commitStats0.committedInstType::SimdPredAlu            0      0.00%     68.70% # Class of committed instruction. (Count)
system.cpu.commitStats0.committedInstType::Matrix            0      0.00%     68.70% # Class of committed instruction. (Count)
system.cpu.commitStats0.committedInstType::MatrixMov            0      0.00%     68.70% # Class of committed instruction. (Count)
system.cpu.commitStats0.committedInstType::MatrixOP            0      0.00%     68.70% # Class of committed instruction. (Count)
system.cpu.commitStats0.committedInstType::MemRead      2060518     18.44%     87.14% # Class of committed instruction. (Count)
system.cpu.commitStats0.committedInstType::MemWrite      1119306     10.02%     97.16% # Class of committed instruction. (Count)
system.cpu.commitStats0.committedInstType::FloatMemRead       190067      1.70%     98.86% # Class of committed instruction. (Count)
system.cpu.commitStats0.committedInstType::FloatMemWrite       126916      1.14%    100.00% # Class of committed instruction. (Count)
system.cpu.commitStats0.committedInstType::IprAccess            0      0.00%    100.00% # Class of committed instruction. (Count)
system.cpu.commitStats0.committedInstType::InstPrefetch            0      0.00%    100.00% # Class of committed instruction. (Count)
system.cpu.commitStats0.committedInstType::SimdUnitStrideLoad            0      0.00%    100.00% # Class of committed instruction. (Count)
system.cpu.commitStats0.committedInstType::SimdUnitStrideStore            0      0.00%    100.00% # Class of committed instruction. (Count)
system.cpu.commitStats0.committedInstType::SimdUnitStrideMaskLoad            0      0.00%    100.00% # Class of committed instruction. (Count)
system.cpu.commitStats0.committedInstType::SimdUnitStrideMaskStore            0      0.00%    100.00% # Class of committed instruction. (Count)
system.cpu.commitStats0.committedInstType::SimdStridedLoad            0      0.00%    100.00% # Class of committed instruction. (Count)
system.cpu.commitStats0.committedInstType::SimdStridedStore            0      0.00%    100.00% # Class of committed instruction. (Count)
system.cpu.commitStats0.committedInstType::SimdIndexedLoad            0      0.00%    100.00% # Class of committed instruction. (Count)
system.cpu.commitStats0.committedInstType::SimdIndexedStore            0      0.00%    100.00% # Class of committed instruction. (Count)
system.cpu.commitStats0.committedInstType::SimdWholeRegisterLoad            0      0.00%    100.00% # Class of committed instruction. (Count)
system.cpu.commitStats0.committedInstType::SimdWholeRegisterStore            0      0.00%    100.00% # Class of committed instruction. (Count)
system.cpu.commitStats0.committedInstType::SimdUnitStrideFaultOnlyFirstLoad            0      0.00%    100.00% # Class of committed instruction. (Count)
system.cpu.commitStats0.committedInstType::SimdUnitStrideSegmentedLoad            0      0.00%    100.00% # Class of committed instruction. (Count)
system.cpu.commitStats0.committedInstType::SimdUnitStrideSegmentedStore            0      0.00%    100.00% # Class of committed instruction. (Count)
system.cpu.commitStats0.committedInstType::SimdExt            0      0.00%    100.00% # Class of committed instruction. (Count)
system.cpu.commitStats0.committedInstType::SimdFloatExt            0      0.00%    100.00% # Class of committed instruction. (Count)
system.cpu.commitStats0.committedInstType::SimdConfig            0      0.00%    100.00% # Class of committed instruction. (Count)
system.cpu.commitStats0.committedInstType::total     11171807                       # Class of committed instruction. (Count)
system.cpu.commitStats0.committedControl::IsControl       876557                       # Class of control type instructions committed (Count)
system.cpu.commitStats0.committedControl::IsDirectControl       632995                       # Class of control type instructions committed (Count)
system.cpu.commitStats0.committedControl::IsIndirectControl       243488                       # Class of control type instructions committed (Count)
system.cpu.commitStats0.committedControl::IsCondControl       380004                       # Class of control type instructions committed (Count)
system.cpu.commitStats0.committedControl::IsUncondControl       496479                       # Class of control type instructions committed (Count)
system.cpu.commitStats0.committedControl::IsCall       234693                       # Class of control type instructions committed (Count)
system.cpu.commitStats0.committedControl::IsReturn       234688                       # Class of control type instructions committed (Count)
system.cpu.dcache.demandHits::cpu.data        3471990                       # number of demand (read+write) hits (Count)
system.cpu.dcache.demandHits::total           3471990                       # number of demand (read+write) hits (Count)
system.cpu.dcache.overallHits::cpu.data       3471990                       # number of overall hits (Count)
system.cpu.dcache.overallHits::total          3471990                       # number of overall hits (Count)
system.cpu.dcache.demandMisses::cpu.data        14160                       # number of demand (read+write) misses (Count)
system.cpu.dcache.demandMisses::total           14160                       # number of demand (read+write) misses (Count)
system.cpu.dcache.overallMisses::cpu.data        14160                       # number of overall misses (Count)
system.cpu.dcache.overallMisses::total          14160                       # number of overall misses (Count)
system.cpu.dcache.demandMissLatency::cpu.data   1216460625                       # number of demand (read+write) miss ticks (Tick)
system.cpu.dcache.demandMissLatency::total   1216460625                       # number of demand (read+write) miss ticks (Tick)
system.cpu.dcache.overallMissLatency::cpu.data   1216460625                       # number of overall miss ticks (Tick)
system.cpu.dcache.overallMissLatency::total   1216460625                       # number of overall miss ticks (Tick)
system.cpu.dcache.demandAccesses::cpu.data      3486150                       # number of demand (read+write) accesses (Count)
system.cpu.dcache.demandAccesses::total       3486150                       # number of demand (read+write) accesses (Count)
system.cpu.dcache.overallAccesses::cpu.data      3486150                       # number of overall (read+write) accesses (Count)
system.cpu.dcache.overallAccesses::total      3486150                       # number of overall (read+write) accesses (Count)
system.cpu.dcache.demandMissRate::cpu.data     0.004062                       # miss rate for demand accesses (Ratio)
system.cpu.dcache.demandMissRate::total      0.004062                       # miss rate for demand accesses (Ratio)
system.cpu.dcache.overallMissRate::cpu.data     0.004062                       # miss rate for overall accesses (Ratio)
system.cpu.dcache.overallMissRate::total     0.004062                       # miss rate for overall accesses (Ratio)
system.cpu.dcache.demandAvgMissLatency::cpu.data 85908.236229                       # average overall miss latency in ticks ((Tick/Count))
system.cpu.dcache.demandAvgMissLatency::total 85908.236229                       # average overall miss latency in ticks ((Tick/Count))
system.cpu.dcache.overallAvgMissLatency::cpu.data 85908.236229                       # average overall miss latency ((Tick/Count))
system.cpu.dcache.overallAvgMissLatency::total 85908.236229                       # average overall miss latency ((Tick/Count))
system.cpu.dcache.blockedCycles::no_mshrs            0                       # number of cycles access was blocked (Cycle)
system.cpu.dcache.blockedCycles::no_targets            0                       # number of cycles access was blocked (Cycle)
system.cpu.dcache.blockedCauses::no_mshrs            0                       # number of times access was blocked (Count)
system.cpu.dcache.blockedCauses::no_targets            0                       # number of times access was blocked (Count)
system.cpu.dcache.avgBlocked::no_mshrs            nan                       # average number of cycles each access was blocked ((Cycle/Count))
system.cpu.dcache.avgBlocked::no_targets          nan                       # average number of cycles each access was blocked ((Cycle/Count))
system.cpu.dcache.writebacks::writebacks         2712                       # number of writebacks (Count)
system.cpu.dcache.writebacks::total              2712                       # number of writebacks (Count)
system.cpu.dcache.demandMshrMisses::cpu.data        14160                       # number of demand (read+write) MSHR misses (Count)
system.cpu.dcache.demandMshrMisses::total        14160                       # number of demand (read+write) MSHR misses (Count)
system.cpu.dcache.overallMshrMisses::cpu.data        14160                       # number of overall MSHR misses (Count)
system.cpu.dcache.overallMshrMisses::total        14160                       # number of overall MSHR misses (Count)
system.cpu.dcache.demandMshrMissLatency::cpu.data   1195233625                       # number of demand (read+write) MSHR miss ticks (Tick)
system.cpu.dcache.demandMshrMissLatency::total   1195233625                       # number of demand (read+write) MSHR miss ticks (Tick)
system.cpu.dcache.overallMshrMissLatency::cpu.data   1195233625                       # number of overall MSHR miss ticks (Tick)
system.cpu.dcache.overallMshrMissLatency::total   1195233625                       # number of overall MSHR miss ticks (Tick)
system.cpu.dcache.demandMshrMissRate::cpu.data     0.004062                       # mshr miss ratio for demand accesses (Ratio)
system.cpu.dcache.demandMshrMissRate::total     0.004062                       # mshr miss ratio for demand accesses (Ratio)
system.cpu.dcache.overallMshrMissRate::cpu.data     0.004062                       # mshr miss ratio for overall accesses (Ratio)
system.cpu.dcache.overallMshrMissRate::total     0.004062                       # mshr miss ratio for overall accesses (Ratio)
system.cpu.dcache.demandAvgMshrMissLatency::cpu.data 84409.154308                       # average overall mshr miss latency ((Tick/Count))
system.cpu.dcache.demandAvgMshrMissLatency::total 84409.154308                       # average overall mshr miss latency ((Tick/Count))
system.cpu.dcache.overallAvgMshrMissLatency::cpu.data 84409.154308                       # average overall mshr miss latency ((Tick/Count))
system.cpu.dcache.overallAvgMshrMissLatency::total 84409.154308                       # average overall mshr miss latency ((Tick/Count))
system.cpu.dcache.replacements                  13140                       # number of replacements (Count)
system.cpu.dcache.LockedRMWReadReq.hits::cpu.data         5207                       # number of LockedRMWReadReq hits (Count)
system.cpu.dcache.LockedRMWReadReq.hits::total         5207                       # number of LockedRMWReadReq hits (Count)
system.cpu.dcache.LockedRMWReadReq.misses::cpu.data            4                       # number of LockedRMWReadReq misses (Count)
system.cpu.dcache.LockedRMWReadReq.misses::total            4                       # number of LockedRMWReadReq misses (Count)
system.cpu.dcache.LockedRMWReadReq.missLatency::cpu.data       353125                       # number of LockedRMWReadReq miss ticks (Tick)
system.cpu.dcache.LockedRMWReadReq.missLatency::total       353125                       # number of LockedRMWReadReq miss ticks (Tick)
system.cpu.dcache.LockedRMWReadReq.accesses::cpu.data         5211                       # number of LockedRMWReadReq accesses(hits+misses) (Count)
system.cpu.dcache.LockedRMWReadReq.accesses::total         5211                       # number of LockedRMWReadReq accesses(hits+misses) (Count)
system.cpu.dcache.LockedRMWReadReq.missRate::cpu.data     0.000768                       # miss rate for LockedRMWReadReq accesses (Ratio)
system.cpu.dcache.LockedRMWReadReq.missRate::total     0.000768                       # miss rate for LockedRMWReadReq accesses (Ratio)
system.cpu.dcache.LockedRMWReadReq.avgMissLatency::cpu.data 88281.250000                       # average LockedRMWReadReq miss latency ((Tick/Count))
system.cpu.dcache.LockedRMWReadReq.avgMissLatency::total 88281.250000                       # average LockedRMWReadReq miss latency ((Tick/Count))
system.cpu.dcache.LockedRMWReadReq.mshrMisses::cpu.data            4                       # number of LockedRMWReadReq MSHR misses (Count)
system.cpu.dcache.LockedRMWReadReq.mshrMisses::total            4                       # number of LockedRMWReadReq MSHR misses (Count)
system.cpu.dcache.LockedRMWReadReq.mshrMissLatency::cpu.data      7209000                       # number of LockedRMWReadReq MSHR miss ticks (Tick)
system.cpu.dcache.LockedRMWReadReq.mshrMissLatency::total      7209000                       # number of LockedRMWReadReq MSHR miss ticks (Tick)
system.cpu.dcache.LockedRMWReadReq.mshrMissRate::cpu.data     0.000768                       # mshr miss rate for LockedRMWReadReq accesses (Ratio)
system.cpu.dcache.LockedRMWReadReq.mshrMissRate::total     0.000768                       # mshr miss rate for LockedRMWReadReq accesses (Ratio)
system.cpu.dcache.LockedRMWReadReq.avgMshrMissLatency::cpu.data      1802250                       # average LockedRMWReadReq mshr miss latency ((Tick/Count))
system.cpu.dcache.LockedRMWReadReq.avgMshrMissLatency::total      1802250                       # average LockedRMWReadReq mshr miss latency ((Tick/Count))
system.cpu.dcache.LockedRMWWriteReq.hits::cpu.data         5211                       # number of LockedRMWWriteReq hits (Count)
system.cpu.dcache.LockedRMWWriteReq.hits::total         5211                       # number of LockedRMWWriteReq hits (Count)
system.cpu.dcache.LockedRMWWriteReq.accesses::cpu.data         5211                       # number of LockedRMWWriteReq accesses(hits+misses) (Count)
system.cpu.dcache.LockedRMWWriteReq.accesses::total         5211                       # number of LockedRMWWriteReq accesses(hits+misses) (Count)
system.cpu.dcache.ReadReq.hits::cpu.data      2233761                       # number of ReadReq hits (Count)
system.cpu.dcache.ReadReq.hits::total         2233761                       # number of ReadReq hits (Count)
system.cpu.dcache.ReadReq.misses::cpu.data        11406                       # number of ReadReq misses (Count)
system.cpu.dcache.ReadReq.misses::total         11406                       # number of ReadReq misses (Count)
system.cpu.dcache.ReadReq.missLatency::cpu.data    976061875                       # number of ReadReq miss ticks (Tick)
system.cpu.dcache.ReadReq.missLatency::total    976061875                       # number of ReadReq miss ticks (Tick)
system.cpu.dcache.ReadReq.accesses::cpu.data      2245167                       # number of ReadReq accesses(hits+misses) (Count)
system.cpu.dcache.ReadReq.accesses::total      2245167                       # number of ReadReq accesses(hits+misses) (Count)
system.cpu.dcache.ReadReq.missRate::cpu.data     0.005080                       # miss rate for ReadReq accesses (Ratio)
system.cpu.dcache.ReadReq.missRate::total     0.005080                       # miss rate for ReadReq accesses (Ratio)
system.cpu.dcache.ReadReq.avgMissLatency::cpu.data 85574.423549                       # average ReadReq miss latency ((Tick/Count))
system.cpu.dcache.ReadReq.avgMissLatency::total 85574.423549                       # average ReadReq miss latency ((Tick/Count))
system.cpu.dcache.ReadReq.mshrMisses::cpu.data        11406                       # number of ReadReq MSHR misses (Count)
system.cpu.dcache.ReadReq.mshrMisses::total        11406                       # number of ReadReq MSHR misses (Count)
system.cpu.dcache.ReadReq.mshrMissLatency::cpu.data    958965750                       # number of ReadReq MSHR miss ticks (Tick)
system.cpu.dcache.ReadReq.mshrMissLatency::total    958965750                       # number of ReadReq MSHR miss ticks (Tick)
system.cpu.dcache.ReadReq.mshrMissRate::cpu.data     0.005080                       # mshr miss rate for ReadReq accesses (Ratio)
system.cpu.dcache.ReadReq.mshrMissRate::total     0.005080                       # mshr miss rate for ReadReq accesses (Ratio)
system.cpu.dcache.ReadReq.avgMshrMissLatency::cpu.data 84075.552341                       # average ReadReq mshr miss latency ((Tick/Count))
system.cpu.dcache.ReadReq.avgMshrMissLatency::total 84075.552341                       # average ReadReq mshr miss latency ((Tick/Count))
system.cpu.dcache.WriteReq.hits::cpu.data      1238229                       # number of WriteReq hits (Count)
system.cpu.dcache.WriteReq.hits::total        1238229                       # number of WriteReq hits (Count)
system.cpu.dcache.WriteReq.misses::cpu.data         2754                       # number of WriteReq misses (Count)
system.cpu.dcache.WriteReq.misses::total         2754                       # number of WriteReq misses (Count)
system.cpu.dcache.WriteReq.missLatency::cpu.data    240398750                       # number of WriteReq miss ticks (Tick)
system.cpu.dcache.WriteReq.missLatency::total    240398750                       # number of WriteReq miss ticks (Tick)
system.cpu.dcache.WriteReq.accesses::cpu.data      1240983                       # number of WriteReq accesses(hits+misses) (Count)
system.cpu.dcache.WriteReq.accesses::total      1240983                       # number of WriteReq accesses(hits+misses) (Count)
system.cpu.dcache.WriteReq.missRate::cpu.data     0.002219                       # miss rate for WriteReq accesses (Ratio)
system.cpu.dcache.WriteReq.missRate::total     0.002219                       # miss rate for WriteReq accesses (Ratio)
system.cpu.dcache.WriteReq.avgMissLatency::cpu.data 87290.758896                       # average WriteReq miss latency ((Tick/Count))
system.cpu.dcache.WriteReq.avgMissLatency::total 87290.758896                       # average WriteReq miss latency ((Tick/Count))
system.cpu.dcache.WriteReq.mshrMisses::cpu.data         2754                       # number of WriteReq MSHR misses (Count)
system.cpu.dcache.WriteReq.mshrMisses::total         2754                       # number of WriteReq MSHR misses (Count)
system.cpu.dcache.WriteReq.mshrMissLatency::cpu.data    236267875                       # number of WriteReq MSHR miss ticks (Tick)
system.cpu.dcache.WriteReq.mshrMissLatency::total    236267875                       # number of WriteReq MSHR miss ticks (Tick)
system.cpu.dcache.WriteReq.mshrMissRate::cpu.data     0.002219                       # mshr miss rate for WriteReq accesses (Ratio)
system.cpu.dcache.WriteReq.mshrMissRate::total     0.002219                       # mshr miss rate for WriteReq accesses (Ratio)
system.cpu.dcache.WriteReq.avgMshrMissLatency::cpu.data 85790.804285                       # average WriteReq mshr miss latency ((Tick/Count))
system.cpu.dcache.WriteReq.avgMshrMissLatency::total 85790.804285                       # average WriteReq mshr miss latency ((Tick/Count))
system.cpu.dcache.power_state.pwrStateResidencyTicks::UNDEFINED  17027094375                       # Cumulative time (in ticks) in various power states (Tick)
system.cpu.dcache.tags.tagsInUse          1013.994761                       # Average ticks per tags in use ((Tick/Count))
system.cpu.dcache.tags.totalRefs               428484                       # Total number of references to valid blocks. (Count)
system.cpu.dcache.tags.sampledRefs              13140                       # Sample count of references to valid blocks. (Count)
system.cpu.dcache.tags.avgRefs              32.609132                       # Average number of references to valid blocks. ((Count/Count))
system.cpu.dcache.tags.warmupTick              221000                       # The tick when the warmup percentage was hit. (Tick)
system.cpu.dcache.tags.occupancies::cpu.data  1013.994761                       # Average occupied blocks per tick, per requestor ((Count/Tick))
system.cpu.dcache.tags.avgOccs::cpu.data     0.990229                       # Average percentage of cache occupancy ((Ratio/Tick))
system.cpu.dcache.tags.avgOccs::total        0.990229                       # Average percentage of cache occupancy ((Ratio/Tick))
system.cpu.dcache.tags.occupanciesTaskId::1024         1024                       # Occupied blocks per task id (Count)
system.cpu.dcache.tags.ageTaskId_1024::0           37                       # Occupied blocks per task id, per block age (Count)
system.cpu.dcache.tags.ageTaskId_1024::1          164                       # Occupied blocks per task id, per block age (Count)
system.cpu.dcache.tags.ageTaskId_1024::2            2                       # Occupied blocks per task id, per block age (Count)
system.cpu.dcache.tags.ageTaskId_1024::3           55                       # Occupied blocks per task id, per block age (Count)
system.cpu.dcache.tags.ageTaskId_1024::4          766                       # Occupied blocks per task id, per block age (Count)
system.cpu.dcache.tags.ratioOccsTaskId::1024            1                       # Ratio of occupied blocks and all blocks, per task id (Ratio)
system.cpu.dcache.tags.tagAccesses           14000452                       # Number of tag accesses (Count)
system.cpu.dcache.tags.dataAccesses          14000452                       # Number of data accesses (Count)
system.cpu.dcache.tags.power_state.pwrStateResidencyTicks::UNDEFINED  17027094375                       # Cumulative time (in ticks) in various power states (Tick)
system.cpu.exec_context.thread_0.numMatAluAccesses            0                       # Number of matrix alu accesses (Count)
system.cpu.exec_context.thread_0.numCallsReturns       469381                       # Number of times a function call or return occured (Count)
system.cpu.exec_context.thread_0.numMatInsts            0                       # Number of matrix instructions (Count)
system.cpu.exec_context.thread_0.numIdleCycles     0.001600                       # Number of idle cycles (Cycle)
system.cpu.exec_context.thread_0.numBusyCycles 27243350.998400                       # Number of busy cycles (Cycle)
system.cpu.exec_context.thread_0.notIdleFraction     1.000000                       # Percentage of non-idle cycles (Ratio)
system.cpu.exec_context.thread_0.idleFraction     0.000000                       # Percentage of idle cycles (Ratio)
system.cpu.exec_context.thread_0.numPredictedBranches       705188                       # Number of branches predicted as taken (Count)
system.cpu.exec_context.thread_0.numBranchMispred        17639                       # Number of branch mispredictions (Count)
system.cpu.executeStats0.numInsts                   0                       # Number of executed instructions (Count)
system.cpu.executeStats0.numNop                     0                       # Number of nop insts executed (Count)
system.cpu.executeStats0.numBranches                0                       # Number of branches executed (Count)
system.cpu.executeStats0.numLoadInsts               0                       # Number of load instructions executed (Count)
system.cpu.executeStats0.numStoreInsts        3496807                       # Number of stores executed (Count)
system.cpu.executeStats0.instRate                   0                       # Inst execution rate ((Count/Cycle))
system.cpu.executeStats0.numFpAluAccesses       580842                       # Number of float alu accesses (Count)
system.cpu.executeStats0.numFpRegReads         477924                       # Number of times the floating registers were read (Count)
system.cpu.executeStats0.numFpRegWrites        446521                       # Number of times the floating registers were written (Count)
system.cpu.executeStats0.numIntAluAccesses     10664580                       # Number of integer alu accesses (Count)
system.cpu.executeStats0.numIntRegReads      13324879                       # Number of times the integer registers were read (Count)
system.cpu.executeStats0.numIntRegWrites      8063095                       # Number of times the integer registers were written (Count)
system.cpu.executeStats0.numMemRefs           3496807                       # Number of memory refs (Count)
system.cpu.executeStats0.numMiscRegReads      5025729                       # Number of times the Misc registers were read (Count)
system.cpu.executeStats0.numMiscRegWrites          693                       # Number of times the Misc registers were written (Count)
system.cpu.executeStats0.numVecAluAccesses            0                       # Number of vector alu accesses (Count)
system.cpu.executeStats0.numDiscardedOps            0                       # Number of ops (including micro ops) which were discarded before commit (Count)
system.cpu.fetchStats0.numInsts               6972218                       # Number of instructions fetched (thread level) (Count)
system.cpu.fetchStats0.numOps                11171807                       # Number of ops (including micro ops) fetched (thread level) (Count)
system.cpu.fetchStats0.fetchRate             0.255924                       # Number of inst fetches per cycle ((Count/Cycle))
system.cpu.fetchStats0.numBranches             876557                       # Number of branches fetched (Count)
system.cpu.fetchStats0.branchRate            0.032175                       # Number of branch fetches per cycle (Ratio)
system.cpu.fetchStats0.numFetchSuspends             0                       # Number of times Execute suspended instruction fetching (Count)
system.cpu.icache.demandHits::cpu.inst        8981899                       # number of demand (read+write) hits (Count)
system.cpu.icache.demandHits::total           8981899                       # number of demand (read+write) hits (Count)
system.cpu.icache.overallHits::cpu.inst       8981899                       # number of overall hits (Count)
system.cpu.icache.overallHits::total          8981899                       # number of overall hits (Count)
system.cpu.icache.demandMisses::cpu.inst         2512                       # number of demand (read+write) misses (Count)
system.cpu.icache.demandMisses::total            2512                       # number of demand (read+write) misses (Count)
system.cpu.icache.overallMisses::cpu.inst         2512                       # number of overall misses (Count)
system.cpu.icache.overallMisses::total           2512                       # number of overall misses (Count)
system.cpu.icache.demandMissLatency::cpu.inst    225846250                       # number of demand (read+write) miss ticks (Tick)
system.cpu.icache.demandMissLatency::total    225846250                       # number of demand (read+write) miss ticks (Tick)
system.cpu.icache.overallMissLatency::cpu.inst    225846250                       # number of overall miss ticks (Tick)
system.cpu.icache.overallMissLatency::total    225846250                       # number of overall miss ticks (Tick)
system.cpu.icache.demandAccesses::cpu.inst      8984411                       # number of demand (read+write) accesses (Count)
system.cpu.icache.demandAccesses::total       8984411                       # number of demand (read+write) accesses (Count)
system.cpu.icache.overallAccesses::cpu.inst      8984411                       # number of overall (read+write) accesses (Count)
system.cpu.icache.overallAccesses::total      8984411                       # number of overall (read+write) accesses (Count)
system.cpu.icache.demandMissRate::cpu.inst     0.000280                       # miss rate for demand accesses (Ratio)
system.cpu.icache.demandMissRate::total      0.000280                       # miss rate for demand accesses (Ratio)
system.cpu.icache.overallMissRate::cpu.inst     0.000280                       # miss rate for overall accesses (Ratio)
system.cpu.icache.overallMissRate::total     0.000280                       # miss rate for overall accesses (Ratio)
system.cpu.icache.demandAvgMissLatency::cpu.inst 89906.946656                       # average overall miss latency in ticks ((Tick/Count))
system.cpu.icache.demandAvgMissLatency::total 89906.946656                       # average overall miss latency in ticks ((Tick/Count))
system.cpu.icache.overallAvgMissLatency::cpu.inst 89906.946656                       # average overall miss latency ((Tick/Count))
system.cpu.icache.overallAvgMissLatency::total 89906.946656                       # average overall miss latency ((Tick/Count))
system.cpu.icache.blockedCycles::no_mshrs            0                       # number of cycles access was blocked (Cycle)
system.cpu.icache.blockedCycles::no_targets            0                       # number of cycles access was blocked (Cycle)
system.cpu.icache.blockedCauses::no_mshrs            0                       # number of times access was blocked (Count)
system.cpu.icache.blockedCauses::no_targets            0                       # number of times access was blocked (Count)
system.cpu.icache.avgBlocked::no_mshrs            nan                       # average number of cycles each access was blocked ((Cycle/Count))
system.cpu.icache.avgBlocked::no_targets          nan                       # average number of cycles each access was blocked ((Cycle/Count))
system.cpu.icache.demandMshrMisses::cpu.inst         2512                       # number of demand (read+write) MSHR misses (Count)
system.cpu.icache.demandMshrMisses::total         2512                       # number of demand (read+write) MSHR misses (Count)
system.cpu.icache.overallMshrMisses::cpu.inst         2512                       # number of overall MSHR misses (Count)
system.cpu.icache.overallMshrMisses::total         2512                       # number of overall MSHR misses (Count)
system.cpu.icache.demandMshrMissLatency::cpu.inst    222075125                       # number of demand (read+write) MSHR miss ticks (Tick)
system.cpu.icache.demandMshrMissLatency::total    222075125                       # number of demand (read+write) MSHR miss ticks (Tick)
system.cpu.icache.overallMshrMissLatency::cpu.inst    222075125                       # number of overall MSHR miss ticks (Tick)
system.cpu.icache.overallMshrMissLatency::total    222075125                       # number of overall MSHR miss ticks (Tick)
system.cpu.icache.demandMshrMissRate::cpu.inst     0.000280                       # mshr miss ratio for demand accesses (Ratio)
system.cpu.icache.demandMshrMissRate::total     0.000280                       # mshr miss ratio for demand accesses (Ratio)
system.cpu.icache.overallMshrMissRate::cpu.inst     0.000280                       # mshr miss ratio for overall accesses (Ratio)
system.cpu.icache.overallMshrMissRate::total     0.000280                       # mshr miss ratio for overall accesses (Ratio)
system.cpu.icache.demandAvgMshrMissLatency::cpu.inst 88405.702627                       # average overall mshr miss latency ((Tick/Count))
system.cpu.icache.demandAvgMshrMissLatency::total 88405.702627                       # average overall mshr miss latency ((Tick/Count))
system.cpu.icache.overallAvgMshrMissLatency::cpu.inst 88405.702627                       # average overall mshr miss latency ((Tick/Count))
system.cpu.icache.overallAvgMshrMissLatency::total 88405.702627                       # average overall mshr miss latency ((Tick/Count))
system.cpu.icache.replacements                   2256                       # number of replacements (Count)
system.cpu.icache.ReadReq.hits::cpu.inst      8981899                       # number of ReadReq hits (Count)
system.cpu.icache.ReadReq.hits::total         8981899                       # number of ReadReq hits (Count)
system.cpu.icache.ReadReq.misses::cpu.inst         2512                       # number of ReadReq misses (Count)
system.cpu.icache.ReadReq.misses::total          2512                       # number of ReadReq misses (Count)
system.cpu.icache.ReadReq.missLatency::cpu.inst    225846250                       # number of ReadReq miss ticks (Tick)
system.cpu.icache.ReadReq.missLatency::total    225846250                       # number of ReadReq miss ticks (Tick)
system.cpu.icache.ReadReq.accesses::cpu.inst      8984411                       # number of ReadReq accesses(hits+misses) (Count)
system.cpu.icache.ReadReq.accesses::total      8984411                       # number of ReadReq accesses(hits+misses) (Count)
system.cpu.icache.ReadReq.missRate::cpu.inst     0.000280                       # miss rate for ReadReq accesses (Ratio)
system.cpu.icache.ReadReq.missRate::total     0.000280                       # miss rate for ReadReq accesses (Ratio)
system.cpu.icache.ReadReq.avgMissLatency::cpu.inst 89906.946656                       # average ReadReq miss latency ((Tick/Count))
system.cpu.icache.ReadReq.avgMissLatency::total 89906.946656                       # average ReadReq miss latency ((Tick/Count))
system.cpu.icache.ReadReq.mshrMisses::cpu.inst         2512                       # number of ReadReq MSHR misses (Count)
system.cpu.icache.ReadReq.mshrMisses::total         2512                       # number of ReadReq MSHR misses (Count)
system.cpu.icache.ReadReq.mshrMissLatency::cpu.inst    222075125                       # number of ReadReq MSHR miss ticks (Tick)
system.cpu.icache.ReadReq.mshrMissLatency::total    222075125                       # number of ReadReq MSHR miss ticks (Tick)
system.cpu.icache.ReadReq.mshrMissRate::cpu.inst     0.000280                       # mshr miss rate for ReadReq accesses (Ratio)
system.cpu.icache.ReadReq.mshrMissRate::total     0.000280                       # mshr miss rate for ReadReq accesses (Ratio)
system.cpu.icache.ReadReq.avgMshrMissLatency::cpu.inst 88405.702627                       # average ReadReq mshr miss latency ((Tick/Count))
system.cpu.icache.ReadReq.avgMshrMissLatency::total 88405.702627                       # average ReadReq mshr miss latency ((Tick/Count))
system.cpu.icache.power_state.pwrStateResidencyTicks::UNDEFINED  17027094375                       # Cumulative time (in ticks) in various power states (Tick)
system.cpu.icache.tags.tagsInUse           255.370622                       # Average ticks per tags in use ((Tick/Count))
system.cpu.icache.tags.totalRefs              4643463                       # Total number of references to valid blocks. (Count)
system.cpu.icache.tags.sampledRefs               2256                       # Sample count of references to valid blocks. (Count)
system.cpu.icache.tags.avgRefs            2058.272606                       # Average number of references to valid blocks. ((Count/Count))
system.cpu.icache.tags.warmupTick              108000                       # The tick when the warmup percentage was hit. (Tick)
system.cpu.icache.tags.occupancies::cpu.inst   255.370622                       # Average occupied blocks per tick, per requestor ((Count/Tick))
system.cpu.icache.tags.avgOccs::cpu.inst     0.997541                       # Average percentage of cache occupancy ((Ratio/Tick))
system.cpu.icache.tags.avgOccs::total        0.997541                       # Average percentage of cache occupancy ((Ratio/Tick))
system.cpu.icache.tags.occupanciesTaskId::1024          256                       # Occupied blocks per task id (Count)
system.cpu.icache.tags.ageTaskId_1024::0           47                       # Occupied blocks per task id, per block age (Count)
system.cpu.icache.tags.ageTaskId_1024::1          106                       # Occupied blocks per task id, per block age (Count)
system.cpu.icache.tags.ageTaskId_1024::2            9                       # Occupied blocks per task id, per block age (Count)
system.cpu.icache.tags.ageTaskId_1024::3           29                       # Occupied blocks per task id, per block age (Count)
system.cpu.icache.tags.ageTaskId_1024::4           65                       # Occupied blocks per task id, per block age (Count)
system.cpu.icache.tags.ratioOccsTaskId::1024            1                       # Ratio of occupied blocks and all blocks, per task id (Ratio)
system.cpu.icache.tags.tagAccesses           35940156                       # Number of tag accesses (Count)
system.cpu.icache.tags.dataAccesses          35940156                       # Number of data accesses (Count)
system.cpu.icache.tags.power_state.pwrStateResidencyTicks::UNDEFINED  17027094375                       # Cumulative time (in ticks) in various power states (Tick)
system.cpu.interrupts.clk_domain.clock          10000                       # Clock period in ticks (Tick)
system.cpu.mmu.dtb.rdAccesses                 2250611                       # TLB accesses on read requests (Count)
system.cpu.mmu.dtb.wrAccesses                 1246233                       # TLB accesses on write requests (Count)
system.cpu.mmu.dtb.rdMisses                      1472                       # TLB misses on read requests (Count)
system.cpu.mmu.dtb.wrMisses                       119                       # TLB misses on write requests (Count)
system.cpu.mmu.dtb.walker.power_state.pwrStateResidencyTicks::UNDEFINED  17027094375                       # Cumulative time (in ticks) in various power states (Tick)
system.cpu.mmu.itb.rdAccesses                       0                       # TLB accesses on read requests (Count)
system.cpu.mmu.itb.wrAccesses                 8984522                       # TLB accesses on write requests (Count)
system.cpu.mmu.itb.rdMisses                         0                       # TLB misses on read requests (Count)
system.cpu.mmu.itb.wrMisses                       423                       # TLB misses on write requests (Count)
system.cpu.mmu.itb.walker.power_state.pwrStateResidencyTicks::UNDEFINED  17027094375                       # Cumulative time (in ticks) in various power states (Tick)
system.cpu.power_state.pwrStateResidencyTicks::ON  17027094375                       # Cumulative time (in ticks) in various power states (Tick)
system.cpu.thread_0.numInsts                        0                       # Number of Instructions committed (Count)
system.cpu.thread_0.numOps                          0                       # Number of Ops committed (Count)
system.cpu.thread_0.numMemRefs                      0                       # Number of Memory References (Count)
system.cpu.workload.numSyscalls                    69                       # Number of system calls (Count)
system.cpu_clk_domain.clock                       625                       # Clock period in ticks (Tick)
system.cpu_clk_domain.voltage_domain.voltage            1                       # Voltage in Volts (Volt)
system.l2bus.transDist::ReadResp                13918                       # Transaction distribution (Count)
system.l2bus.transDist::WritebackDirty           4112                       # Transaction distribution (Count)
system.l2bus.transDist::CleanEvict              19734                       # Transaction distribution (Count)
system.l2bus.transDist::ReadExReq                2758                       # Transaction distribution (Count)
system.l2bus.transDist::ReadExResp               2758                       # Transaction distribution (Count)
system.l2bus.transDist::ReadSharedReq           13918                       # Transaction distribution (Count)
system.l2bus.pktCount_system.cpu.icache.mem_side_port::system.l2cache.cpu_side_port         7280                       # Packet count per connected requestor and responder (Count)
system.l2bus.pktCount_system.cpu.dcache.mem_side_port::system.l2cache.cpu_side_port        41468                       # Packet count per connected requestor and responder (Count)
system.l2bus.pktCount::total                    48748                       # Packet count per connected requestor and responder (Count)
system.l2bus.pktSize_system.cpu.icache.mem_side_port::system.l2cache.cpu_side_port       160768                       # Cumulative packet size per connected requestor and responder (Byte)
system.l2bus.pktSize_system.cpu.dcache.mem_side_port::system.l2cache.cpu_side_port      1080064                       # Cumulative packet size per connected requestor and responder (Byte)
system.l2bus.pktSize::total                   1240832                       # Cumulative packet size per connected requestor and responder (Byte)
system.l2bus.snoops                              8450                       # Total snoops (Count)
system.l2bus.snoopTraffic                       89600                       # Total snoop traffic (Byte)
system.l2bus.snoopFanout::samples               25126                       # Request fanout histogram (Count)
system.l2bus.snoopFanout::mean               0.015641                       # Request fanout histogram (Count)
system.l2bus.snoopFanout::stdev              0.124085                       # Request fanout histogram (Count)
system.l2bus.snoopFanout::underflows                0      0.00%      0.00% # Request fanout histogram (Count)
system.l2bus.snoopFanout::0                     24733     98.44%     98.44% # Request fanout histogram (Count)
system.l2bus.snoopFanout::1                       393      1.56%    100.00% # Request fanout histogram (Count)
system.l2bus.snoopFanout::2                         0      0.00%    100.00% # Request fanout histogram (Count)
system.l2bus.snoopFanout::overflows                 0      0.00%    100.00% # Request fanout histogram (Count)
system.l2bus.snoopFanout::min_value                 0                       # Request fanout histogram (Count)
system.l2bus.snoopFanout::max_value                 1                       # Request fanout histogram (Count)
system.l2bus.snoopFanout::total                 25126                       # Request fanout histogram (Count)
system.l2bus.power_state.pwrStateResidencyTicks::UNDEFINED  17027094375                       # Cumulative time (in ticks) in various power states (Tick)
system.l2bus.reqLayer0.occupancy             52102125                       # Layer occupancy (ticks) (Tick)
system.l2bus.reqLayer0.utilization                0.0                       # Layer utilization (Ratio)
system.l2bus.respLayer0.occupancy             7536000                       # Layer occupancy (ticks) (Tick)
system.l2bus.respLayer0.utilization               0.0                       # Layer utilization (Ratio)
system.l2bus.respLayer1.occupancy            42492000                       # Layer occupancy (ticks) (Tick)
system.l2bus.respLayer1.utilization               0.0                       # Layer utilization (Ratio)
system.l2bus.snoop_filter.totRequests           32072                       # Total number of requests made to the snoop filter. (Count)
system.l2bus.snoop_filter.hitSingleRequests        15396                       # Number of requests hitting in the snoop filter with a single holder of the requested data. (Count)
system.l2bus.snoop_filter.hitMultiRequests            0                       # Number of requests hitting in the snoop filter with multiple (>1) holders of the requested data. (Count)
system.l2bus.snoop_filter.totSnoops               393                       # Total number of snoops made to the snoop filter. (Count)
system.l2bus.snoop_filter.hitSingleSnoops          393                       # Number of snoops hitting in the snoop filter with a single holder of the requested data. (Count)
system.l2bus.snoop_filter.hitMultiSnoops            0                       # Number of snoops hitting in the snoop filter with multiple (>1) holders of the requested data. (Count)
system.l2cache.demandHits::cpu.inst               447                       # number of demand (read+write) hits (Count)
system.l2cache.demandHits::cpu.data              3703                       # number of demand (read+write) hits (Count)
system.l2cache.demandHits::total                 4150                       # number of demand (read+write) hits (Count)
system.l2cache.overallHits::cpu.inst              447                       # number of overall hits (Count)
system.l2cache.overallHits::cpu.data             3703                       # number of overall hits (Count)
system.l2cache.overallHits::total                4150                       # number of overall hits (Count)
system.l2cache.demandMisses::cpu.inst            2065                       # number of demand (read+write) misses (Count)
system.l2cache.demandMisses::cpu.data           10461                       # number of demand (read+write) misses (Count)
system.l2cache.demandMisses::total              12526                       # number of demand (read+write) misses (Count)
system.l2cache.overallMisses::cpu.inst           2065                       # number of overall misses (Count)
system.l2cache.overallMisses::cpu.data          10461                       # number of overall misses (Count)
system.l2cache.overallMisses::total             12526                       # number of overall misses (Count)
system.l2cache.demandMissLatency::cpu.inst    206436250                       # number of demand (read+write) miss ticks (Tick)
system.l2cache.demandMissLatency::cpu.data   1081339375                       # number of demand (read+write) miss ticks (Tick)
system.l2cache.demandMissLatency::total    1287775625                       # number of demand (read+write) miss ticks (Tick)
system.l2cache.overallMissLatency::cpu.inst    206436250                       # number of overall miss ticks (Tick)
system.l2cache.overallMissLatency::cpu.data   1081339375                       # number of overall miss ticks (Tick)
system.l2cache.overallMissLatency::total   1287775625                       # number of overall miss ticks (Tick)
system.l2cache.demandAccesses::cpu.inst          2512                       # number of demand (read+write) accesses (Count)
system.l2cache.demandAccesses::cpu.data         14164                       # number of demand (read+write) accesses (Count)
system.l2cache.demandAccesses::total            16676                       # number of demand (read+write) accesses (Count)
system.l2cache.overallAccesses::cpu.inst         2512                       # number of overall (read+write) accesses (Count)
system.l2cache.overallAccesses::cpu.data        14164                       # number of overall (read+write) accesses (Count)
system.l2cache.overallAccesses::total           16676                       # number of overall (read+write) accesses (Count)
system.l2cache.demandMissRate::cpu.inst      0.822054                       # miss rate for demand accesses (Ratio)
system.l2cache.demandMissRate::cpu.data      0.738563                       # miss rate for demand accesses (Ratio)
system.l2cache.demandMissRate::total         0.751139                       # miss rate for demand accesses (Ratio)
system.l2cache.overallMissRate::cpu.inst     0.822054                       # miss rate for overall accesses (Ratio)
system.l2cache.overallMissRate::cpu.data     0.738563                       # miss rate for overall accesses (Ratio)
system.l2cache.overallMissRate::total        0.751139                       # miss rate for overall accesses (Ratio)
system.l2cache.demandAvgMissLatency::cpu.inst 99969.128329                       # average overall miss latency in ticks ((Tick/Count))
system.l2cache.demandAvgMissLatency::cpu.data 103368.643055                       # average overall miss latency in ticks ((Tick/Count))
system.l2cache.demandAvgMissLatency::total 102808.208925                       # average overall miss latency in ticks ((Tick/Count))
system.l2cache.overallAvgMissLatency::cpu.inst 99969.128329                       # average overall miss latency ((Tick/Count))
system.l2cache.overallAvgMissLatency::cpu.data 103368.643055                       # average overall miss latency ((Tick/Count))
system.l2cache.overallAvgMissLatency::total 102808.208925                       # average overall miss latency ((Tick/Count))
system.l2cache.blockedCycles::no_mshrs              0                       # number of cycles access was blocked (Cycle)
system.l2cache.blockedCycles::no_targets            0                       # number of cycles access was blocked (Cycle)
system.l2cache.blockedCauses::no_mshrs              0                       # number of times access was blocked (Count)
system.l2cache.blockedCauses::no_targets            0                       # number of times access was blocked (Count)
system.l2cache.avgBlocked::no_mshrs               nan                       # average number of cycles each access was blocked ((Cycle/Count))
system.l2cache.avgBlocked::no_targets             nan                       # average number of cycles each access was blocked ((Cycle/Count))
system.l2cache.writebacks::writebacks            1400                       # number of writebacks (Count)
system.l2cache.writebacks::total                 1400                       # number of writebacks (Count)
system.l2cache.demandMshrMisses::cpu.inst         2065                       # number of demand (read+write) MSHR misses (Count)
system.l2cache.demandMshrMisses::cpu.data        10461                       # number of demand (read+write) MSHR misses (Count)
[...]
system.mem_ctrl.dram.bytesWritten::total        89600                       # Number of bytes written to this memory (Byte)
system.mem_ctrl.dram.numReads::cpu.inst          2065                       # Number of read requests responded to by this memory (Count)
system.mem_ctrl.dram.numReads::cpu.data         10461                       # Number of read requests responded to by this memory (Count)
system.mem_ctrl.dram.numReads::total            12526                       # Number of read requests responded to by this memory (Count)
system.mem_ctrl.dram.numWrites::writebacks         1400                       # Number of write requests responded to by this memory (Count)
system.mem_ctrl.dram.numWrites::total            1400                       # Number of write requests responded to by this memory (Count)
system.mem_ctrl.dram.bwRead::cpu.inst         7761747                       # Total read bandwidth from this memory ((Byte/Second))
system.mem_ctrl.dram.bwRead::cpu.data        39319921                       # Total read bandwidth from this memory ((Byte/Second))
system.mem_ctrl.dram.bwRead::total           47081668                       # Total read bandwidth from this memory ((Byte/Second))
system.mem_ctrl.dram.bwInstRead::cpu.inst      7761747                       # Instruction read bandwidth from this memory ((Byte/Second))
system.mem_ctrl.dram.bwInstRead::total        7761747                       # Instruction read bandwidth from this memory ((Byte/Second))
system.mem_ctrl.dram.bwWrite::writebacks      5262201                       # Write bandwidth from this memory ((Byte/Second))
system.mem_ctrl.dram.bwWrite::total           5262201                       # Write bandwidth from this memory ((Byte/Second))
system.mem_ctrl.dram.bwTotal::writebacks      5262201                       # Total bandwidth to/from this memory ((Byte/Second))
system.mem_ctrl.dram.bwTotal::cpu.inst        7761747                       # Total bandwidth to/from this memory ((Byte/Second))
system.mem_ctrl.dram.bwTotal::cpu.data       39319921                       # Total bandwidth to/from this memory ((Byte/Second))
system.mem_ctrl.dram.bwTotal::total          52343869                       # Total bandwidth to/from this memory ((Byte/Second))
system.mem_ctrl.dram.readBursts                 12510                       # Number of DRAM read bursts (Count)
system.mem_ctrl.dram.writeBursts                 1371                       # Number of DRAM write bursts (Count)
system.mem_ctrl.dram.perBankRdBursts::0           816                       # Per bank write bursts (Count)
system.mem_ctrl.dram.perBankRdBursts::1           934                       # Per bank write bursts (Count)
system.mem_ctrl.dram.perBankRdBursts::2           882                       # Per bank write bursts (Count)
system.mem_ctrl.dram.perBankRdBursts::3           921                       # Per bank write bursts (Count)
system.mem_ctrl.dram.perBankRdBursts::4           895                       # Per bank write bursts (Count)
system.mem_ctrl.dram.perBankRdBursts::5           903                       # Per bank write bursts (Count)
system.mem_ctrl.dram.perBankRdBursts::6           858                       # Per bank write bursts (Count)
system.mem_ctrl.dram.perBankRdBursts::7           744                       # Per bank write bursts (Count)
system.mem_ctrl.dram.perBankRdBursts::8           770                       # Per bank write bursts (Count)
system.mem_ctrl.dram.perBankRdBursts::9           875                       # Per bank write bursts (Count)
system.mem_ctrl.dram.perBankRdBursts::10          781                       # Per bank write bursts (Count)
system.mem_ctrl.dram.perBankRdBursts::11          753                       # Per bank write bursts (Count)
system.mem_ctrl.dram.perBankRdBursts::12          691                       # Per bank write bursts (Count)
system.mem_ctrl.dram.perBankRdBursts::13          576                       # Per bank write bursts (Count)
system.mem_ctrl.dram.perBankRdBursts::14          518                       # Per bank write bursts (Count)
system.mem_ctrl.dram.perBankRdBursts::15          593                       # Per bank write bursts (Count)
system.mem_ctrl.dram.perBankWrBursts::0            46                       # Per bank write bursts (Count)
system.mem_ctrl.dram.perBankWrBursts::1           122                       # Per bank write bursts (Count)
system.mem_ctrl.dram.perBankWrBursts::2           199                       # Per bank write bursts (Count)
system.mem_ctrl.dram.perBankWrBursts::3           129                       # Per bank write bursts (Count)
system.mem_ctrl.dram.perBankWrBursts::4           128                       # Per bank write bursts (Count)
system.mem_ctrl.dram.perBankWrBursts::5            70                       # Per bank write bursts (Count)
system.mem_ctrl.dram.perBankWrBursts::6           138                       # Per bank write bursts (Count)
system.mem_ctrl.dram.perBankWrBursts::7           125                       # Per bank write bursts (Count)
system.mem_ctrl.dram.perBankWrBursts::8            19                       # Per bank write bursts (Count)
system.mem_ctrl.dram.perBankWrBursts::9            35                       # Per bank write bursts (Count)
system.mem_ctrl.dram.perBankWrBursts::10          131                       # Per bank write bursts (Count)
system.mem_ctrl.dram.perBankWrBursts::11           93                       # Per bank write bursts (Count)
system.mem_ctrl.dram.perBankWrBursts::12           61                       # Per bank write bursts (Count)
system.mem_ctrl.dram.perBankWrBursts::13           57                       # Per bank write bursts (Count)
system.mem_ctrl.dram.perBankWrBursts::14            0                       # Per bank write bursts (Count)
system.mem_ctrl.dram.perBankWrBursts::15           18                       # Per bank write bursts (Count)
system.mem_ctrl.dram.totQLat                143605250                       # Total ticks spent queuing (Tick)
system.mem_ctrl.dram.totBusLat               62550000                       # Total ticks spent in databus transfers (Tick)
system.mem_ctrl.dram.totMemAccLat           378167750                       # Total ticks spent from burst creation until serviced by the DRAM (Tick)
system.mem_ctrl.dram.avgQLat                 11479.24                       # Average queueing delay per DRAM burst ((Tick/Count))
system.mem_ctrl.dram.avgBusLat                5000.00                       # Average bus latency per DRAM burst ((Tick/Count))
system.mem_ctrl.dram.avgMemAccLat            30229.24                       # Average memory access latency per DRAM burst ((Tick/Count))
system.mem_ctrl.dram.readRowHits                 7068                       # Number of row buffer hits during reads (Count)
system.mem_ctrl.dram.writeRowHits                1038                       # Number of row buffer hits during writes (Count)
system.mem_ctrl.dram.readRowHitRate             56.50                       # Row buffer hit rate for reads (Ratio)
system.mem_ctrl.dram.writeRowHitRate            75.71                       # Row buffer hit rate for writes (Ratio)
system.mem_ctrl.dram.bytesPerActivate::samples         5764                       # Bytes accessed per row activation (Byte)
system.mem_ctrl.dram.bytesPerActivate::mean   153.948647                       # Bytes accessed per row activation (Byte)
system.mem_ctrl.dram.bytesPerActivate::gmean   106.438934                       # Bytes accessed per row activation (Byte)
system.mem_ctrl.dram.bytesPerActivate::stdev   188.266494                       # Bytes accessed per row activation (Byte)
system.mem_ctrl.dram.bytesPerActivate::0-127         3401     59.00%     59.00% # Bytes accessed per row activation (Byte)
system.mem_ctrl.dram.bytesPerActivate::128-255         1449     25.14%     84.14% # Bytes accessed per row activation (Byte)
system.mem_ctrl.dram.bytesPerActivate::256-383          395      6.85%     91.00% # Bytes accessed per row activation (Byte)
system.mem_ctrl.dram.bytesPerActivate::384-511          159      2.76%     93.75% # Bytes accessed per row activation (Byte)
system.mem_ctrl.dram.bytesPerActivate::512-639           99      1.72%     95.47% # Bytes accessed per row activation (Byte)
system.mem_ctrl.dram.bytesPerActivate::640-767           62      1.08%     96.55% # Bytes accessed per row activation (Byte)
system.mem_ctrl.dram.bytesPerActivate::768-895           53      0.92%     97.47% # Bytes accessed per row activation (Byte)
system.mem_ctrl.dram.bytesPerActivate::896-1023           30      0.52%     97.99% # Bytes accessed per row activation (Byte)
system.mem_ctrl.dram.bytesPerActivate::1024-1151          116      2.01%    100.00% # Bytes accessed per row activation (Byte)
system.mem_ctrl.dram.bytesPerActivate::total         5764                       # Bytes accessed per row activation (Byte)
system.mem_ctrl.dram.dramBytesRead             800640                       # Total bytes read (Byte)
system.mem_ctrl.dram.dramBytesWritten           87744                       # Total bytes written (Byte)
system.mem_ctrl.dram.avgRdBW                47.021528                       # Average DRAM read bandwidth in MiBytes/s ((Byte/Second))
system.mem_ctrl.dram.avgWrBW                 5.153199                       # Average DRAM write bandwidth in MiBytes/s ((Byte/Second))
system.mem_ctrl.dram.peakBW                  12800.00                       # Theoretical peak bandwidth in MiByte/s ((Byte/Second))
system.mem_ctrl.dram.busUtil                     0.41                       # Data bus utilization in percentage (Ratio)
system.mem_ctrl.dram.busUtilRead                 0.37                       # Data bus utilization in percentage for reads (Ratio)
system.mem_ctrl.dram.busUtilWrite                0.04                       # Data bus utilization in percentage for writes (Ratio)
system.mem_ctrl.dram.pageHitRate                58.40                       # Row buffer hit rate, read and write combined (Ratio)
system.mem_ctrl.dram.power_state.pwrStateResidencyTicks::UNDEFINED  17027094375                       # Cumulative time (in ticks) in various power states (Tick)
system.mem_ctrl.dram.rank0.actEnergy         21020160                       # Energy for activate commands per rank (pJ) (Joule)
system.mem_ctrl.dram.rank0.preEnergy         11145915                       # Energy for precharge commands per rank (pJ) (Joule)
system.mem_ctrl.dram.rank0.readEnergy        49644420                       # Energy for read commands per rank (pJ) (Joule)
system.mem_ctrl.dram.rank0.writeEnergy        4995540                       # Energy for write commands per rank (pJ) (Joule)
system.mem_ctrl.dram.rank0.refreshEnergy 1343603040.000000                       # Energy for refresh commands per rank (pJ) (Joule)
system.mem_ctrl.dram.rank0.actBackEnergy   2499868380                       # Energy for active background per rank (pJ) (Joule)
system.mem_ctrl.dram.rank0.preBackEnergy   4433252160                       # Energy for precharge background per rank (pJ) (Joule)
system.mem_ctrl.dram.rank0.actPowerDownEnergy            0                       # Energy for active power-down per rank (pJ) (Joule)
system.mem_ctrl.dram.rank0.prePowerDownEnergy            0                       # Energy for precharge power-down per rank (pJ) (Joule)
system.mem_ctrl.dram.rank0.selfRefreshEnergy            0                       # Energy for self refresh per rank (pJ) (Joule)
system.mem_ctrl.dram.rank0.totalEnergy     8363529615                       # Total energy per rank (pJ) (Joule)
system.mem_ctrl.dram.rank0.averagePower    491.189479                       # Core power per rank (mW) (Watt)
system.mem_ctrl.dram.rank0.totalIdleTime            0                       # Total Idle time Per DRAM Rank (Tick)
system.mem_ctrl.dram.rank0.pwrStateTime::IDLE  11502620500                       # Time in different power states (Tick)
system.mem_ctrl.dram.rank0.pwrStateTime::REF    568360000                       # Time in different power states (Tick)
system.mem_ctrl.dram.rank0.pwrStateTime::SREF            0                       # Time in different power states (Tick)
system.mem_ctrl.dram.rank0.pwrStateTime::PRE_PDN            0                       # Time in different power states (Tick)
system.mem_ctrl.dram.rank0.pwrStateTime::ACT   4956113875                       # Time in different power states (Tick)
system.mem_ctrl.dram.rank0.pwrStateTime::ACT_PDN            0                       # Time in different power states (Tick)
system.mem_ctrl.dram.rank1.actEnergy         20213340                       # Energy for activate commands per rank (pJ) (Joule)
system.mem_ctrl.dram.rank1.preEnergy         10728465                       # Energy for precharge commands per rank (pJ) (Joule)
system.mem_ctrl.dram.rank1.readEnergy        39676980                       # Energy for read commands per rank (pJ) (Joule)
system.mem_ctrl.dram.rank1.writeEnergy        2161080                       # Energy for write commands per rank (pJ) (Joule)
system.mem_ctrl.dram.rank1.refreshEnergy 1343603040.000000                       # Energy for refresh commands per rank (pJ) (Joule)
system.mem_ctrl.dram.rank1.actBackEnergy   2360327250                       # Energy for active background per rank (pJ) (Joule)
system.mem_ctrl.dram.rank1.preBackEnergy   4550760480                       # Energy for precharge background per rank (pJ) (Joule)
system.mem_ctrl.dram.rank1.actPowerDownEnergy            0                       # Energy for active power-down per rank (pJ) (Joule)
system.mem_ctrl.dram.rank1.prePowerDownEnergy            0                       # Energy for precharge power-down per rank (pJ) (Joule)
system.mem_ctrl.dram.rank1.selfRefreshEnergy            0                       # Energy for self refresh per rank (pJ) (Joule)
system.mem_ctrl.dram.rank1.totalEnergy     8327470635                       # Total energy per rank (pJ) (Joule)
system.mem_ctrl.dram.rank1.averagePower    489.071738                       # Core power per rank (mW) (Watt)
system.mem_ctrl.dram.rank1.totalIdleTime            0                       # Total Idle time Per DRAM Rank (Tick)
system.mem_ctrl.dram.rank1.pwrStateTime::IDLE  11809282125                       # Time in different power states (Tick)
system.mem_ctrl.dram.rank1.pwrStateTime::REF    568360000                       # Time in different power states (Tick)
system.mem_ctrl.dram.rank1.pwrStateTime::SREF            0                       # Time in different power states (Tick)
system.mem_ctrl.dram.rank1.pwrStateTime::PRE_PDN            0                       # Time in different power states (Tick)
system.mem_ctrl.dram.rank1.pwrStateTime::ACT   4649452250                       # Time in different power states (Tick)
system.mem_ctrl.dram.rank1.pwrStateTime::ACT_PDN            0                       # Time in different power states (Tick)
system.mem_ctrl.power_state.pwrStateResidencyTicks::UNDEFINED  17027094375                       # Cumulative time (in ticks) in various power states (Tick)
system.membus.transDist::ReadResp               10350                       # Transaction distribution (Count)
system.membus.transDist::WritebackDirty          1400                       # Transaction distribution (Count)
system.membus.transDist::CleanEvict              6978                       # Transaction distribution (Count)
system.membus.transDist::ReadExReq               2176                       # Transaction distribution (Count)
system.membus.transDist::ReadExResp              2176                       # Transaction distribution (Count)
system.membus.transDist::ReadSharedReq          10350                       # Transaction distribution (Count)
system.membus.pktCount_system.l2cache.mem_side_port::system.mem_ctrl.port        33430                       # Packet count per connected requestor and responder (Count)
system.membus.pktCount_system.l2cache.mem_side_port::total        33430                       # Packet count per connected requestor and responder (Count)
system.membus.pktCount::total                   33430                       # Packet count per connected requestor and responder (Count)
system.membus.pktSize_system.l2cache.mem_side_port::system.mem_ctrl.port       891264                       # Cumulative packet size per connected requestor and responder (Byte)
system.membus.pktSize_system.l2cache.mem_side_port::total       891264                       # Cumulative packet size per connected requestor and responder (Byte)
system.membus.pktSize::total                   891264                       # Cumulative packet size per connected requestor and responder (Byte)
system.membus.snoops                                0                       # Total snoops (Count)
system.membus.snoopTraffic                          0                       # Total snoop traffic (Byte)
system.membus.snoopFanout::samples              12526                       # Request fanout histogram (Count)
system.membus.snoopFanout::mean                     0                       # Request fanout histogram (Count)
system.membus.snoopFanout::stdev                    0                       # Request fanout histogram (Count)
system.membus.snoopFanout::underflows               0      0.00%      0.00% # Request fanout histogram (Count)
system.membus.snoopFanout::0                    12526    100.00%    100.00% # Request fanout histogram (Count)
system.membus.snoopFanout::1                        0      0.00%    100.00% # Request fanout histogram (Count)
system.membus.snoopFanout::overflows                0      0.00%    100.00% # Request fanout histogram (Count)
system.membus.snoopFanout::min_value                0                       # Request fanout histogram (Count)
system.membus.snoopFanout::max_value                0                       # Request fanout histogram (Count)
system.membus.snoopFanout::total                12526                       # Request fanout histogram (Count)
system.membus.power_state.pwrStateResidencyTicks::UNDEFINED  17027094375                       # Cumulative time (in ticks) in various power states (Tick)
system.membus.reqLayer2.occupancy            31828875                       # Layer occupancy (ticks) (Tick)
system.membus.reqLayer2.utilization               0.0                       # Layer utilization (Ratio)
system.membus.respLayer0.occupancy           67375750                       # Layer occupancy (ticks) (Tick)
system.membus.respLayer0.utilization              0.0                       # Layer utilization (Ratio)
system.membus.snoop_filter.totRequests          20904                       # Total number of requests made to the snoop filter. (Count)
system.membus.snoop_filter.hitSingleRequests         8378                       # Number of requests hitting in the snoop filter with a single holder of the requested data. (Count)
system.membus.snoop_filter.hitMultiRequests            0                       # Number of requests hitting in the snoop filter with multiple (>1) holders of the requested data. (Count)
system.membus.snoop_filter.totSnoops                0                       # Total number of snoops made to the snoop filter. (Count)
system.membus.snoop_filter.hitSingleSnoops            0                       # Number of snoops hitting in the snoop filter with a single holder of the requested data. (Count)
system.membus.snoop_filter.hitMultiSnoops            0                       # Number of snoops hitting in the snoop filter with multiple (>1) holders of the requested data. (Count)
system.workload.inst.arm                            0                       # number of arm instructions executed (Count)
system.workload.inst.quiesce                        0                       # number of quiesce instructions executed (Count)

---------- End Simulation Statistics   ----------
